Version 4
SHEET 1 968 704
WIRE 592 80 400 80
WIRE 624 80 592 80
WIRE 848 80 624 80
WIRE 400 128 400 80
WIRE 128 176 32 176
WIRE 176 176 128 176
WIRE 288 176 256 176
WIRE 336 176 288 176
WIRE 848 256 848 80
WIRE 32 272 32 176
WIRE 624 304 624 80
WIRE 400 352 400 224
WIRE 448 352 400 352
WIRE 560 352 448 352
WIRE 624 416 624 400
WIRE 624 432 624 416
WIRE 32 528 32 352
WIRE 448 528 32 528
WIRE 624 528 624 512
WIRE 624 528 448 528
WIRE 848 528 848 336
WIRE 848 528 624 528
WIRE 624 560 624 528
FLAG 624 560 0
FLAG 288 176 5
FLAG 128 176 1
FLAG 592 80 2
FLAG 448 352 3
FLAG 624 416 4
FLAG 448 528 0
SYMBOL npn 336 128 R0
SYMATTR InstName Q2
SYMATTR Value QMOSSNPN-X
SYMBOL npn 560 304 R0
SYMATTR InstName Q1
SYMATTR Value QMOSSNPN-X
SYMBOL res 608 416 R0
SYMATTR InstName R1
SYMATTR Value 100k
SYMBOL res 272 160 R90
WINDOW 0 0 56 VBottom 2
WINDOW 3 32 56 VTop 2
SYMATTR InstName R2
SYMATTR Value 1k
SYMBOL voltage 32 256 R0
WINDOW 3 24 44 Left 2
WINDOW 123 24 72 Left 2
WINDOW 39 0 0 Left 2
SYMATTR InstName V1
SYMATTR Value 1.5
SYMATTR Value2 AC 1.
SYMBOL voltage 848 240 R0
WINDOW 123 0 0 Left 2
WINDOW 39 0 0 Left 2
SYMATTR InstName V2
SYMATTR Value 12
TEXT -4 604 Left 2 !.op
TEXT 8 648 Left 2 !;ac dec 100 100 100000000
TEXT -16 688 Left 2 !;tran 0 0.1 0 0.0001
