.model QMOSSNPN-X NPN(Is=1f Xti=3 Eg=1.11 Vaf=74.03 Bf=150 Ne=1.307
+ Ise=14.34f Ikf=.2847 Xtb=1.5 Br=10 Nc=2 Isc=0 Ikr=0 Rc=1
+ Cjc=1p Mjc=0.3 Vjc=0.8 Fc=.5 Cje=0.1p Mje=0.3 Vje=0.8
+ Tr=40n Tf=400p Itf=.6 Vtf=1.7 Xtf=3 Rb=50)
* National pid=19 case=TO18
* 88-09-07 bam creation